Circuit: * C:\users\zwouklebleu\Documents\Prg\UdS\S1\APP6\app6 test1.asc

WARNING: Less than two connections to node N001.  This node is used by R3.
WARNING: Less than two connections to node NC_01.  This node is used by R11.
Direct Newton iteration for .op point succeeded.

Date: Mon Dec 02 14:13:07 2024
Total elapsed time: 0.237 seconds.

tnom = 27
temp = 27
method = modified trap
totiter = 7545
traniter = 7522
tranpoints = 2566
accept = 2015
rejected = 551
matrix size = 28
fillins = 3
solver = Normal
Matrix Compiler1: 1.40 KB object code size  0.8/0.4/[0.3]
Matrix Compiler2: off  [0.5]/0.5/1.3

