Circuit: * C:\users\zwouklebleu\Documents\Prg\UdS\S1\APP6\app6 I.asc

WARNING: Less than two connections to node N001.  This node is used by R3.
WARNING: Less than two connections to node NC_01.  This node is used by R11.
Direct Newton iteration for .op point succeeded.

Date: Sun Dec 01 23:28:18 2024
Total elapsed time: 0.076 seconds.

tnom = 27
temp = 27
method = modified trap
totiter = 290
traniter = 267
tranpoints = 108
accept = 95
rejected = 13
matrix size = 27
fillins = 2
solver = Normal
Matrix Compiler1: 1.47 KB object code size  0.4/0.2/[0.2]
Matrix Compiler2:     198 opcodes  0.2/[0.2]/0.3

