Circuit: * C:\users\zwouklebleu\Documents\Prg\UdS\S1\APP6\Draft1.asc

.OP point found by inspection.

v2: v(v2)=8.64489 at 0.02


Date: Wed Dec 04 23:50:55 2024
Total elapsed time: 0.638 seconds.

tnom = 27
temp = 27
method = modified trap
totiter = 400184
traniter = 400184
tranpoints = 200093
accept = 200076
rejected = 17
matrix size = 3
fillins = 0
solver = Normal
Matrix Compiler1: 50 bytes object code size  0.1/0.1/[0.1]
Matrix Compiler2:      15 opcodes  0.1/[0.1]/0.1

