Circuit: * C:\users\zwouklebleu\Documents\Prg\UdS\S1\APP6\Formatif LTSPICE\Question 1.asc

.OP point found by inspection.

test1: v(v2)=8.64665 at 0.02


Date: Thu Dec 05 18:18:47 2024
Total elapsed time: 0.975 seconds.

tnom = 27
temp = 27
method = modified trap
totiter = 401886
traniter = 401886
tranpoints = 200944
accept = 200792
rejected = 152
matrix size = 5
fillins = 0
solver = Normal
Matrix Compiler1: 96 bytes object code size  0.1/0.1/[0.1]
Matrix Compiler2: off
