Circuit: * C:\users\zwouklebleu\Documents\Prg\UdS\S1\APP6\Formatif LTSPICE\Question 3.asc

Direct Newton iteration for .op point succeeded.

vl: v(vl)=-5.41192 at 0.002


Date: Wed Dec 04 23:56:29 2024
Total elapsed time: 0.692 seconds.

tnom = 27
temp = 27
method = modified trap
totiter = 400201
traniter = 400198
tranpoints = 200100
accept = 200085
rejected = 15
matrix size = 3
fillins = 0
solver = Normal
Matrix Compiler1: 50 bytes object code size  0.1/0.1/[0.1]
Matrix Compiler2: 175 bytes object code size  0.1/0.1/[0.1]

