Circuit: * C:\users\zwouklebleu\Documents\Prg\UdS\S1\APP6\Formatif LTSPICE\Question 5.asc

Unknown node in .ic card: "vl" -- ignoring
.OP point found by inspection.

test: MAX(v(test))=10.2786 FROM 0 TO 0.02


Date: Thu Dec 05 00:08:29 2024
Total elapsed time: 0.105 seconds.

tnom = 27
temp = 27
method = modified trap
totiter = 40316
traniter = 40316
tranpoints = 20159
accept = 20132
rejected = 27
matrix size = 4
fillins = 0
solver = Normal
Matrix Compiler1:       6 opcodes  0.1/[0.1]/0.1
Matrix Compiler2:      21 opcodes  0.1/[0.1]/0.1

