Circuit: * C:\users\zwouklebleu\Documents\Prg\UdS\S1\APP6\Formatif LTSPICE\Question 4.asc

Direct Newton iteration for .op point succeeded.

vl: v(vl)=10 at 0.02


Date: Thu Dec 05 00:00:36 2024
Total elapsed time: 0.857 seconds.

tnom = 27
temp = 27
method = modified trap
totiter = 400201
traniter = 400198
tranpoints = 200100
accept = 200085
rejected = 15
matrix size = 3
fillins = 0
solver = Normal
Matrix Compiler1:       3 opcodes  0.1/[0.1]/0.1
Matrix Compiler2: 175 bytes object code size  0.1/0.1/[0.1]

