Circuit: * C:\users\zwouklebleu\Documents\Prg\UdS\S1\APP6\Formatif LTSPICE\Question 2.asc

.OP point found by inspection.

vl: v(vl)=1.35319 at 0.002


Date: Wed Dec 04 23:54:42 2024
Total elapsed time: 0.740 seconds.

tnom = 27
temp = 27
method = modified trap
totiter = 400208
traniter = 400208
tranpoints = 200105
accept = 200089
rejected = 16
matrix size = 3
fillins = 0
solver = Normal
Matrix Compiler1: 50 bytes object code size  0.1/0.1/[0.1]
Matrix Compiler2: 175 bytes object code size  0.1/0.1/[0.1]

